     6
TITLE
O              1.36536579   -0.00006677    0.10009311
H              1.77443064    0.76458040   -0.30815905
H              1.77489034   -0.76400449   -0.30902361
O             -1.50598688    0.00007608   -0.11934206
H             -1.87611566   -0.00046588    0.76291170
H             -0.54823652   -0.00018447    0.00826254
